Circuit: * C:\Users\zarra\OneDrive\Documentos\Educación\Summer 2020\CUFR\2021_Accumulator_Electronics\AIL+TSAL Shield\TSAL_Simulation\TSAL AIL.asc

Limiting rise time of source v1 to 0.2
Limiting fall time of source v1 to 0.2
Direct Newton iteration for .op point succeeded.

Date: Sun Jul 19 02:39:31 2020
Total elapsed time: 0.385 seconds.

tnom = 27
temp = 27
method = modified trap
totiter = 16595
traniter = 16561
tranpoints = 4078
accept = 3116
rejected = 962
matrix size = 45
fillins = 15
solver = Normal
Matrix Compiler1: 2.48 KB object code size  0.5/0.3/[0.1]
Matrix Compiler2: off  [0.2]/0.5/0.3

